# MAM 50 START
[Config MAM50-BMRELAY-14mps]
description = Configuring node movements
extends = MAM50-BMRELAY
*.collector*.mobility.speed = 14mps

[Config MAM50-MAMRELAY-14mps]
description = Configuring node movements
extends = MAM50-MAMRELAY
*.collector*.mobility.speed = 14mps

[Config MAM50-BMRELAY-6mps]
description = Configuring node movements
extends = MAM50-BMRELAY

[Config MAM50-MAMRELAY-6mps]
description = Configuring node movements
extends = MAM50-MAMRELAY

[Config MAM50-BMRELAY-2mps]
description = Configuring node movements
extends = MAM50-BMRELAY
*.collector*.mobility.speed = 2mps

[Config MAM50-MAMRELAY-2mps]
description = Configuring node movements
extends = MAM50-MAMRELAY
*.collector*.mobility.speed = 2mps

[Config MAM50-BMRELAY]
description = Configuring node movements
extends = MAM50
*.host*.app[0].relayMode = "BMesh"

[Config MAM50-MAMRELAY]
description = Configuring node movements
extends = MAM50
*.host*.app[0].relayMode = "MAM"

# MAM 50 END

# MAM 10 START
[Config MAM10-BMRELAY-14mps]
description = Configuring node movements
extends = MAM10-BMRELAY
*.collector*.mobility.speed = 14mps

[Config MAM10-MAMRELAY-14mps]
description = Configuring node movements
extends = MAM10-MAMRELAY
*.collector*.mobility.speed = 14mps

[Config MAM10-BMRELAY-6mps]
description = Configuring node movements
extends = MAM10-BMRELAY

[Config MAM10-MAMRELAY-6mps]
description = Configuring node movements
extends = MAM10-MAMRELAY

[Config MAM10-BMRELAY-2mps]
description = Configuring node movements
extends = MAM10-BMRELAY
*.collector*.mobility.speed = 2mps

[Config MAM10-MAMRELAY-2mps]
description = Configuring node movements
extends = MAM10-MAMRELAY
*.collector*.mobility.speed = 2mps

[Config MAM10-BMRELAY]
description = Configuring node movements
extends = MAM10
*.host*.app[0].relayMode = "BMesh"

[Config MAM10-MAMRELAY]
description = Configuring node movements
extends = MAM10
*.host*.app[0].relayMode = "MAM"

# MAM 10 END

#-----------------------------------------------------------------------------
[Config MAM50]
description = Test Monitored Arboretum Mesh Model - 50 nodes
network = MAM50
extends = MAM10
*.collector*.mobility.cx = 968m
*.collector*.mobility.cy = 388m

[Config MAM10]
description = Test Monitored Arboretum Mesh Model - 10 nodes
network = MAM10
sim-time-limit = 200s
*.host*.app[0].relayMode = "BMesh"
*.radioMedium.backgroundNoise.power = -110dBm

*.collector*.app[0].startTime = 0

*.host*.ipv4.arp.typename = "GlobalArp"
*.collector*.ipv4.arp.typename = "GlobalArp"

*.host*.ipv4.ip.directBroadcastInterfaces = "wlan0"
*.collector*.ipv4.ip.directBroadcastInterfaces = "wlan0"

*.host*.ipv4.ip.limitedBroadcast = true
*.collector*.ipv4.ip.limitedBroadcast = true

*.host*.numApps = 1
*.host*.app[0].typename = "MamNodeApp"
*.host*.app[0].destAddresses = "collector1"
*.host*.app[0].localPort = 5000
*.host*.app[0].destPort = 5000
*.host*.app[0].messageLength = 1000B
*.host*.app[0].sendInterval = exponential(12ms)
*.host*.app[0].packetName = "UDPData"
*.host_rly*.app[0].relayNode = true

*.collector*.numApps = 1
*.collector*.app[0].typename = "MamDataCollectorApp"
*.collector*.app[0].localPort = 5000
*.collector*.app[0].destPort = 5000

*.collector*.wlan[0].typename = "Ieee802154NarrowbandInterface"
*.collector*.wlan[0].mac.useAck = false
*.collector*.wlan[0].mac.fullDuplex = false
*.collector*.wlan[0].radio.transmitter.communicationRange = 100m
*.collector*.wlan[0].radio.receiver.ignoreInterference = true

*.host*.wlan[0].typename = "Ieee802154NarrowbandInterface"
*.host*.wlan[0].mac.useAck = false
*.host*.wlan[0].mac.fullDuplex = false
*.host*.wlan[0].radio.transmitter.communicationRange = 100m
*.host*.wlan[0].radio.receiver.ignoreInterference = true

#*.host*.**.bitrate = 1Mbps
#*.collector*.**.bitrate = 1Mbps

*.collector*.wlan[0].radio.displayCommunicationRange = true
*.host*.wlan[0].radio.displayCommunicationRange = true

*.visualizer.sceneVisualizer.descriptionFigure = "title"

*.visualizer.mediumVisualizer.displaySignals = true

*.visualizer.physicalLinkVisualizer.displayLinks = true
*.visualizer.physicalLinkVisualizer.packetFilter = "UDPData*"


*.host*.wlan[0].radio.energyConsumer.typename = "SensorStateBasedEpEnergyConsumer"
*.host*.wlan[0].radio.energyConsumer.offPowerConsumption = 0mW
*.host*.wlan[0].radio.energyConsumer.sleepPowerConsumption = 1mW
*.host*.wlan[0].radio.energyConsumer.switchingPowerConsumption = 1mW
*.host*.wlan[0].radio.energyConsumer.receiverIdlePowerConsumption = 2mW
*.host*.wlan[0].radio.energyConsumer.receiverBusyPowerConsumption = 5mW
*.host*.wlan[0].radio.energyConsumer.receiverReceivingPowerConsumption = 10mW
*.host*.wlan[0].radio.energyConsumer.transmitterIdlePowerConsumption = 2mW
*.host*.wlan[0].radio.energyConsumer.transmitterTransmittingPowerConsumption = 100mW

*.host*.energyStorage.typename = "IdealEpEnergyStorage"

*.host*.wlan[0].radio.displayInterferenceRange = false

*.collector*.mobility.typename = "CircleMobility"
*.collector*.mobility.cx = 1000m
*.collector*.mobility.cy = 180m
*.collector*.mobility.r = 400m
*.collector*.mobility.speed = 6mps
*.collector*.mobility.startAngle = 90deg

*.visualizer.mobilityVisualizer.displayVelocities = true
*.visualizer.mobilityVisualizer.displayMovementTrails = true

